Circuit: * C:\Users\hhint\Desktop\Internship\LT_Simulations\Draft1.asc

Direct Newton iteration for .op point succeeded.

Date: Mon Oct 02 22:15:22 2017
Total elapsed time: 0.047 seconds.

tnom = 27
temp = 27
method = modified trap
totiter = 2085
traniter = 2082
tranpoints = 1042
accept = 1042
rejected = 0
matrix size = 2
fillins = 0
solver = Normal
Matrix Compiler1: 36 bytes object code size  0.0/0.0/[0.0]
Matrix Compiler2: off  [0.0]/0.0/0.0

