Circuit: * C:\Users\hhint\Desktop\Internship\LT_Simulations\DutyCycleGenerator.asc

Per .tran options, skipping operating point for transient analysis.
Changing Tseed to 1e-008
Changing Tseed to 1e-010
Changing Tseed to 1e-007
Changing Tseed to 1e-011

Date: Wed Jul 19 15:25:01 2017
Total elapsed time: 1.708 seconds.

tnom = 27
temp = 27
method = modified trap
totiter = 1327576
traniter = 1327576
tranpoints = 335548
accept = 242983
rejected = 92561
matrix size = 10
fillins = 2
solver = Normal
Matrix Compiler1: 668 bytes object code size  0.1/0.1/[0.0]
Matrix Compiler2: off  [0.0]/0.1/0.1

