Circuit: * C:\Users\hhint\Desktop\Internship\LT_Simulations\Flyback_Converter_1st_Draft.asc

Direct Newton iteration for .op point succeeded.

Date: Sun Sep 24 21:31:00 2017
Total elapsed time: 5.937 seconds.

tnom = 27
temp = 27
method = modified trap
totiter = 1925869
traniter = 1925863
tranpoints = 593839
accept = 567295
rejected = 26544
matrix size = 14
fillins = 1
solver = Normal
Matrix Compiler1: 680 bytes object code size  0.2/0.1/[0.0]
Matrix Compiler2: 1.02 KB object code size  0.1/0.1/[0.1]

