Circuit: * C:\Users\hhint\Desktop\Internship\LT_Simulations\Flyback_Converter_2nd_Draft.asc

Direct Newton iteration for .op point succeeded.

Date: Mon Oct 02 22:22:05 2017
Total elapsed time: 14.672 seconds.

tnom = 27
temp = 27
method = modified trap
totiter = 2883466
traniter = 2883454
tranpoints = 802528
accept = 622914
rejected = 179614
matrix size = 18
fillins = 3
solver = Normal
Matrix Compiler1: 1014 bytes object code size  0.3/0.2/[0.1]
Matrix Compiler2: 1.37 KB object code size  0.1/0.2/[0.1]

