Circuit: * G:\Desktop\EE\Internship\LT_Simulations\Flyback_Converter_3rd_Draft.asc

Direct Newton iteration for .op point succeeded.

Date: Wed Jun 27 11:32:58 2018
Total elapsed time: 6.768 seconds.

tnom = 27
temp = 27
method = modified trap
totiter = 2418128
traniter = 2418108
tranpoints = 701700
accept = 559481
rejected = 142219
matrix size = 20
fillins = 7
solver = Normal
Matrix Compiler1: 1.10 KB object code size  0.4/0.2/[0.1]
Matrix Compiler2: off  [0.1]/0.2/0.2

